Version 4
SHEET 1 880 680
WIRE 96 48 -176 48
WIRE 272 48 176 48
WIRE 400 48 352 48
WIRE 544 48 400 48
WIRE 400 96 400 48
WIRE 544 96 544 48
WIRE -176 112 -176 48
WIRE 400 192 400 176
WIRE -176 288 -176 192
WIRE 400 288 400 256
WIRE 400 288 -176 288
WIRE 544 288 544 176
WIRE 544 288 400 288
WIRE -176 304 -176 288
FLAG -176 304 0
SYMBOL voltage -176 96 R0
WINDOW 123 24 124 Left 2
WINDOW 39 0 0 Left 2
SYMATTR InstName V1
SYMATTR Value PULSE(0 1 0 1e-9 1e-9 {1/2*(1/F)} {1/F})
SYMATTR Value2 AC 1 0
SYMBOL res 192 32 R90
WINDOW 0 0 56 VBottom 2
WINDOW 3 32 56 VTop 2
SYMATTR InstName R1
SYMATTR Value 50
SYMBOL res 368 32 R90
WINDOW 0 0 56 VBottom 2
WINDOW 3 32 56 VTop 2
SYMATTR InstName R2
SYMATTR Value 3.3k
SYMATTR SpiceLine tol=10
SYMBOL res 384 80 R0
SYMATTR InstName R3
SYMATTR Value 1K
SYMATTR SpiceLine tol=10
SYMBOL res 528 80 R0
SYMATTR InstName R4
SYMATTR Value 2.2k
SYMATTR SpiceLine tol=10
SYMBOL cap 384 192 R0
SYMATTR InstName C1
SYMATTR Value 10n
TEXT -2 328 Left 2 !.ac dec 10 10 10e6
TEXT 0 360 Left 2 !;.tran 0 {5*(1/F)} 0 1e-6
TEXT 0 392 Left 2 !.param F=750
